96 
Mode m=4, E=-1.51 meV (-1.5 meV)
  C         6.72358283    -0.51409140    -3.39164016     -0.01131282    -0.03855258     0.06016325
  C         7.10751283     0.30407000    -4.45340016      0.00832907    -0.05119156     0.05710099
  C         6.34472283     1.42585000    -4.82638016      0.02118663    -0.04906195     0.03641950
  C         5.15970283     1.74363000    -4.16187016      0.01464002    -0.03381199     0.01747923
  C         4.74083283     0.92490000    -3.10684016     -0.00543866    -0.02122274     0.01942014
  C         5.54272283    -0.18545140    -2.72760016     -0.01865482    -0.02337044     0.04094964
  H         7.31268283    -1.37798140    -3.08900016     -0.02100811    -0.03942843     0.07781563
  H         8.01276283     0.05881000    -5.00664016      0.01567843    -0.06053726     0.07266319
  H         6.68631283     2.06295000    -5.64247016      0.03637946    -0.05989004     0.03422088
  H         4.57862283     2.61535000    -4.45665016      0.02462746    -0.03246868     0.00093447
  C         2.83452283    -0.40809140    -0.30311016     -0.05403887     0.02311104     0.00827274
  C         1.70508283     0.41865000    -0.21423016     -0.04909754     0.03287855    -0.01867051
  C         1.51269283     1.45852000    -1.11838016     -0.02991013     0.02320265    -0.03371488
  C         2.46449283     1.72661000    -2.11370016     -0.01316227     0.00470426    -0.02241588
  C         3.60521283     0.93502000    -2.20780016     -0.01794356    -0.00479680     0.00343137
  C         3.79506283    -0.16679140    -1.30669016     -0.03814085     0.00305182     0.01792793
  N         2.98968000    -1.49147140     0.62162000     -0.07891664     0.03574775     0.02920893
  O         4.04902000    -2.16222140     0.53430000     -0.08601709     0.02221176     0.05913481
  O         2.09402000    -1.73387140     1.45143000     -0.09520393     0.06316248     0.02086724
  H         0.99205000     0.21989000     0.58189000     -0.06247379     0.04714042    -0.02728301
  H         0.61254283     2.06828000    -1.05305016     -0.02728501     0.02944926    -0.05419190
  H         2.29959283     2.54645000    -2.81306016      0.00367232    -0.00308511    -0.03513431
  N         4.94788283    -0.81558140    -1.64005016     -0.03861667    -0.00852903     0.03919929
  H         5.32859283    -1.62867140    -1.15591016     -0.04624201    -0.00605477     0.05040357
  C         3.79576000     0.51409000     3.39164000     -0.01131282    -0.03855258     0.06016325
  C         3.41182000    -0.30407140     4.45340000      0.00832907    -0.05119156     0.05710099
  C         4.17462000    -1.42585140     4.82638000      0.02118663    -0.04906195     0.03641950
  C         5.35964000    -1.74363140     4.16187000      0.01464002    -0.03381199     0.01747923
  C         5.77851000    -0.92490140     3.10684000     -0.00543866    -0.02122274     0.01942014
  C         4.97662000     0.18545000     2.72760000     -0.01865482    -0.02337044     0.04094964
  H         3.20666000     1.37798000     3.08900000     -0.02100811    -0.03942843     0.07781563
  H         2.50658000    -0.05881140     5.00664000      0.01567843    -0.06053726     0.07266319
  H         3.83303000    -2.06295140     5.64247000      0.03637946    -0.05989004     0.03422088
  H         5.94071000    -2.61535140     4.45665000      0.02462746    -0.03246868     0.00093447
  C         7.68481000     0.40809000     0.30311000     -0.05403887     0.02311104     0.00827274
  C         8.81425000    -0.41865140     0.21423000     -0.04909754     0.03287855    -0.01867051
  C         9.00664000    -1.45852140     1.11838000     -0.02991013     0.02320265    -0.03371488
  C         8.05484000    -1.72661140     2.11370000     -0.01316227     0.00470426    -0.02241588
  C         6.91412000    -0.93502140     2.20780000     -0.01794356    -0.00479680     0.00343137
  C         6.72428000     0.16680000     1.30669000     -0.03814085     0.00305182     0.01792793
  N         7.52966283     1.49147000    -0.62162016     -0.07891664     0.03574775     0.02920893
  O         6.47031283     2.16222000    -0.53430016     -0.08601709     0.02221176     0.05913481
  O         8.42531283     1.73387000    -1.45143016     -0.09520393     0.06316248     0.02086724
  H         9.52728283    -0.21989140    -0.58189016     -0.06247379     0.04714042    -0.02728301
  H         9.90679000    -2.06827140     1.05305000     -0.02728501     0.02944926    -0.05419190
  H         8.21975000    -2.54645140     2.81306000      0.00367232    -0.00308511    -0.03513431
  N         5.57146000     0.81558000     1.64005000     -0.03861667    -0.00852903     0.03919929
  H         5.19074000     1.62867000     1.15591000     -0.04624201    -0.00605477     0.05040357
  C        10.62206822     3.14676000     5.23693000      0.01131282    -0.03855258    -0.06016325
  C        11.00599822     2.32860000     4.17517000     -0.00832907    -0.05119156    -0.05710099
  C        10.24319822     1.20682000     3.80218000     -0.02118663    -0.04906195    -0.03641950
  C         9.05818000     0.88904000     4.46669000     -0.01464002    -0.03381199    -0.01747923
  C         8.63932000     1.70777000     5.52173000      0.00543866    -0.02122274    -0.01942014
  C         9.44120000     2.81812000     5.90096000      0.01865482    -0.02337044    -0.04094964
  H        11.21116822     4.01065000     5.53956000      0.02100811    -0.03942843    -0.07781563
  H        11.91123822     2.57386000     3.62192000     -0.01567843    -0.06053726    -0.07266319
  H        10.58478822     0.56972000     2.98609000     -0.03637946    -0.05989004    -0.03422088
  H         8.47711000     0.01732000     4.17192000     -0.02462746    -0.03246868    -0.00093447
  C         6.73301000     3.04076000     8.32546000      0.05403887     0.02311104    -0.00827274
  C         5.60357000     2.21402000     8.41434000      0.04909754     0.03287855     0.01867051
  C         5.41118000     1.17415000     7.51018000      0.02991013     0.02320265     0.03371488
  C         6.36298000     0.90606000     6.51487000      0.01316227     0.00470426     0.02241588
  C         7.50370000     1.69765000     6.42077000      0.01794356    -0.00479680    -0.00343137
  C         7.69355000     2.79947000     7.32188000      0.03814085     0.00305182    -0.01792793
  N         6.88816000     4.12414000     9.25019000      0.07891664     0.03574775    -0.02920893
  O         7.94750000     4.79489000     9.16286000      0.08601709     0.02221176    -0.05913481
  O         5.99251000     4.36654000    10.07999000      0.09520393     0.06316248    -0.02086724
  H         4.89054000     2.41278000     9.21045000      0.06247379     0.04714042     0.02728301
  H         4.51103000     0.56440000     7.57551000      0.02728501     0.02944926     0.05419190
  H         6.19807000     0.08622000     5.81550000     -0.00367232    -0.00308511     0.03513431
  N         8.84636000     3.44825000     6.98851000      0.03861667    -0.00852903    -0.03919929
  H         9.22708000     4.26134000     7.47265000      0.04624201    -0.00605477    -0.05040357
  C         7.69424000     2.11858000    12.02020000      0.01131282    -0.03855258    -0.06016325
  C         7.31030000     2.93674000    13.08196000     -0.00832907    -0.05119156    -0.05710099
  C         8.07310000     4.05852000    13.45495000     -0.02118663    -0.04906195    -0.03641950
  C         9.25811822     4.37630000    12.79044000     -0.01464002    -0.03381199    -0.01747923
  C         9.67698822     3.55757000    11.73540000      0.00543866    -0.02122274    -0.01942014
  C         8.87509822     2.44722000    11.35617000      0.01865482    -0.02337044    -0.04094964
  H         7.10514000     1.25469000    11.71757000      0.02100811    -0.03942843    -0.07781563
  H         6.40506000     2.69148000    13.63521000     -0.01567843    -0.06053726    -0.07266319
  H         7.73151000     4.69562000    14.27104000     -0.03637946    -0.05989004    -0.03422088
  H         9.83919822     5.24802000    13.08521000     -0.02462746    -0.03246868    -0.00093447
  C        11.58329822     2.22458000     8.93167000      0.05403887     0.02311104    -0.00827274
  C        12.71273822     3.05132000     8.84279000      0.04909754     0.03287855     0.01867051
  C        12.90512822     4.09119000     9.74695000      0.02991013     0.02320265     0.03371488
  C        11.95332822     4.35928000    10.74226000      0.01316227     0.00470426     0.02241588
  C        10.81260822     3.56769000    10.83636000      0.01794356    -0.00479680    -0.00343137
  C        10.62275822     2.46588000     9.93525000      0.03814085     0.00305182    -0.01792793
  N        11.42814822     1.14120000     8.00694000      0.07891664     0.03574775    -0.02920893
  O        10.36879822     0.47045000     8.09427000      0.08601709     0.02221176    -0.05913481
  O        12.32379822     0.89880000     7.17714000      0.09520393     0.06316248    -0.02086724
  H        13.42576822     2.85256000     8.04668000      0.06247379     0.04714042     0.02728301
  H        13.80527822     4.70095000     9.68162000      0.02728501     0.02944926     0.05419190
  H        12.11822822     5.17912000    11.44163000     -0.00367232    -0.00308511     0.03513431
  N         9.46993822     1.81709000    10.26862000      0.03861667    -0.00852903    -0.03919929
  H         9.08922822     1.00400000     9.78448000      0.04624201    -0.00605477    -0.05040357
